  Page 1                                    Sat May 16 18:46:06 2020

  ******************************************************************
  *                           E P A N E T                          *
  *                   Hydraulic and Water Quality                  *
  *                   Analysis for Pipe Networks                   *
  *                         Version 2.00.12                        *
  ******************************************************************
  
  Analysis begun Sat May 16 18:46:06 2020

  Analysis ended Sat May 16 18:46:06 2020
