  Page 1                                    Sat May 16 18:11:39 2020

  ******************************************************************
  *                           E P A N E T                          *
  *                   Hydraulic and Water Quality                  *
  *                   Analysis for Pipe Networks                   *
  *                         Version 2.00.12                        *
  ******************************************************************
  
  Analysis begun Sat May 16 18:11:39 2020

   
  Hydraulic Status:
  -----------------------------------------------------------------------
     0:00:00: Balanced after 4 trials
     0:00:00: Reservoir N9 is emptying
   
   
  Hydraulic Status:
  -----------------------------------------------------------------------
     0:00:00: Balanced after 2 trials
     0:00:00: Reservoir N9 is emptying
   
   
  Hydraulic Status:
  -----------------------------------------------------------------------
     0:00:00: Balanced after 2 trials
     0:00:00: Reservoir N9 is emptying
   
   
  Hydraulic Status:
  -----------------------------------------------------------------------
     0:00:00: Balanced after 2 trials
     0:00:00: Reservoir N9 is emptying
   
   
  Hydraulic Status:
  -----------------------------------------------------------------------
     0:00:00: Balanced after 2 trials
     0:00:00: Reservoir N9 is emptying
   
   
  Hydraulic Status:
  -----------------------------------------------------------------------
     0:00:00: Balanced after 2 trials
     0:00:00: Reservoir N9 is emptying
   
   
  Hydraulic Status:
  -----------------------------------------------------------------------
     0:00:00: Balanced after 2 trials
     0:00:00: Reservoir N9 is emptying
   
   
  Hydraulic Status:
  -----------------------------------------------------------------------
     0:00:00: Balanced after 2 trials
     0:00:00: Reservoir N9 is emptying
   
   
  Hydraulic Status:
  -----------------------------------------------------------------------
     0:00:00: Balanced after 2 trials
     0:00:00: Reservoir N9 is emptying
   
   
  Hydraulic Status:
  -----------------------------------------------------------------------
     0:00:00: Balanced after 2 trials
     0:00:00: Reservoir N9 is emptying
   
   
  Hydraulic Status:
  -----------------------------------------------------------------------
     0:00:00: Balanced after 2 trials
     0:00:00: Reservoir N9 is emptying
   
   
  Hydraulic Status:
  -----------------------------------------------------------------------
     0:00:00: Balanced after 2 trials
     0:00:00: Reservoir N9 is emptying
   
   
  Hydraulic Status:
  -----------------------------------------------------------------------
     0:00:00: Balanced after 2 trials
     0:00:00: Reservoir N9 is emptying
   
   
  Hydraulic Status:
  -----------------------------------------------------------------------
     0:00:00: Balanced after 2 trials
     0:00:00: Reservoir N9 is emptying
   
   
  Hydraulic Status:
  -----------------------------------------------------------------------
     0:00:00: Balanced after 2 trials
     0:00:00: Reservoir N9 is emptying
   
   
  Hydraulic Status:
  -----------------------------------------------------------------------
     0:00:00: Balanced after 2 trials
     0:00:00: Reservoir N9 is emptying
   
   
  Hydraulic Status:
  -----------------------------------------------------------------------
     0:00:00: Balanced after 2 trials
     0:00:00: Reservoir N9 is emptying
   
   
  Hydraulic Status:
  -----------------------------------------------------------------------
     0:00:00: Balanced after 2 trials
     0:00:00: Reservoir N9 is emptying
   
   
  Hydraulic Status:
  -----------------------------------------------------------------------
     0:00:00: Balanced after 2 trials
     0:00:00: Reservoir N9 is emptying
   
   
  Hydraulic Status:
  -----------------------------------------------------------------------
     0:00:00: Balanced after 1 trials
     0:00:00: Reservoir N9 is emptying
   
   
  Hydraulic Status:
  -----------------------------------------------------------------------
     0:00:00: Balanced after 1 trials
     0:00:00: Reservoir N9 is emptying
   
   
  Hydraulic Status:
  -----------------------------------------------------------------------
     0:00:00: Balanced after 1 trials
     0:00:00: Reservoir N9 is emptying
   
   
  Hydraulic Status:
  -----------------------------------------------------------------------
     0:00:00: Balanced after 1 trials
     0:00:00: Reservoir N9 is emptying
   
   
  Hydraulic Status:
  -----------------------------------------------------------------------
     0:00:00: Balanced after 1 trials
     0:00:00: Reservoir N9 is emptying
   
   
  Hydraulic Status:
  -----------------------------------------------------------------------
     0:00:00: Balanced after 1 trials
     0:00:00: Reservoir N9 is emptying
   
   
  Hydraulic Status:
  -----------------------------------------------------------------------
     0:00:00: Balanced after 1 trials
     0:00:00: Reservoir N9 is emptying
   
  Analysis ended Sat May 16 18:11:40 2020
